*Heading
** Job name: Job-lub-func Model name: Model-lub-func
** Generated by: Abaqus/CAE 2024
*Preprint, echo=NO, model=NO, history=NO, contact=NO
**
** PARTS
**
*Part, name=Part-die
*Node
      1,           0.,           0.
      2,          0.5,           0.
      3,          0.5,          11.
      4,           0.,          11.
      5,  0.333333343,           0.
      6,  0.166666672,           0.
      7,          0.5,   10.8000002
      8,          0.5,   10.6000004
      9,          0.5,   10.3999996
     10,          0.5,   10.1999998
     11,          0.5,          10.
     12,          0.5,   9.80000019
     13,          0.5,   9.60000038
     14,          0.5,   9.39999962
     15,          0.5,   9.19999981
     16,          0.5,           9.
     17,          0.5,   8.80000019
     18,          0.5,   8.60000038
     19,          0.5,   8.39999962
     20,          0.5,   8.19999981
** ... 96 like lines cut
*Element, type=RAX2
1, 2, 5
2, 5, 6
3, 6, 1
 4,  3,  7
 5,  7,  8
 6,  8,  9
 7,  9, 10
 8, 10, 11
 9, 11, 12
10, 12, 13
11, 13, 14
12, 14, 15
13, 15, 16
14, 16, 17
15, 17, 18
16, 18, 19
17, 19, 20
18, 20, 21
19, 21, 22
20, 22, 23
** ... 96 like lines cut
*Node
    117,           0.,          5.5,           0.
*Nset, nset=Part-die-RefPt_, internal
117, 
*Elset, elset=Part-die, generate
   1,  116,    1
*End Part
**  
*Part, name=Part-punch-low
*Node
      1,           0.,           0.
      2,   5.63999987,           0.
      3,   5.63999987,          0.5
      4,           0.,          0.5
      5,  0.201428577,           0.
      6,  0.402857155,           0.
      7,  0.604285717,           0.
      8,  0.805714309,           0.
      9,    1.0071429,           0.
     10,   1.20857143,           0.
     11,   1.40999997,           0.
     12,   1.61142862,           0.
     13,   1.81285715,           0.
     14,    2.0142858,           0.
     15,   2.21571422,           0.
     16,   2.41714287,           0.
     17,   2.61857152,           0.
     18,   2.81999993,           0.
     19,   3.02142859,           0.
     20,   3.22285724,           0.
** ... 40 like lines cut
*Element, type=RAX2
 1,  1,  5
 2,  5,  6
 3,  6,  7
 4,  7,  8
 5,  8,  9
 6,  9, 10
 7, 10, 11
 8, 11, 12
 9, 12, 13
10, 13, 14
11, 14, 15
12, 15, 16
13, 16, 17
14, 17, 18
15, 18, 19
16, 19, 20
17, 20, 21
18, 21, 22
19, 22, 23
20, 23, 24
** ... 39 like lines cut
*Node
     61,   2.81999993,          0.5,           0.
*Nset, nset=Part-punch-low-RefPt_, internal
61, 
*Elset, elset=Part-punch-low, generate
  1,  59,   1
*End Part
**  
*Part, name=Part-punch-upp
*Node
      1,           0.,           0.
      2,   5.63999987,           0.
      3,   5.63999987,          0.5
      4,           0.,          0.5
      5,  0.201428577,           0.
      6,  0.402857155,           0.
      7,  0.604285717,           0.
      8,  0.805714309,           0.
      9,    1.0071429,           0.
     10,   1.20857143,           0.
     11,   1.40999997,           0.
     12,   1.61142862,           0.
     13,   1.81285715,           0.
     14,    2.0142858,           0.
     15,   2.21571422,           0.
     16,   2.41714287,           0.
     17,   2.61857152,           0.
     18,   2.81999993,           0.
     19,   3.02142859,           0.
     20,   3.22285724,           0.
** ... 40 like lines cut
*Element, type=RAX2
 1,  1,  5
 2,  5,  6
 3,  6,  7
 4,  7,  8
 5,  8,  9
 6,  9, 10
 7, 10, 11
 8, 11, 12
 9, 12, 13
10, 13, 14
11, 14, 15
12, 15, 16
13, 16, 17
14, 17, 18
15, 18, 19
16, 19, 20
17, 20, 21
18, 21, 22
19, 22, 23
20, 23, 24
** ... 39 like lines cut
*Node
     61,   2.81999993,           0.,           0.
*Nset, nset=Part-punch-upp-RefPt_, internal
61, 
*Elset, elset=Part-punch-upp, generate
  1,  59,   1
*End Part
**  
*Part, name=Part-tablet
*Node
      1,           0.,           0.
      2,  0.201428577,           0.
      3,  0.402857155,           0.
      4,  0.604285717,           0.
      5,  0.805714309,           0.
      6,    1.0071429,           0.
      7,   1.20857143,           0.
      8,   1.40999997,           0.
      9,   1.61142862,           0.
     10,   1.81285727,           0.
     11,    2.0142858,           0.
     12,   2.21571422,           0.
     13,   2.41714287,           0.
     14,   2.61857128,           0.
     15,   2.81999969,           0.
     16,   3.02142835,           0.
     17,   3.22285724,           0.
     18,   3.42428589,           0.
     19,    3.6257143,           0.
     20,   3.82714272,           0.
** ... 1459 like lines cut
*Element, type=CAX4R
   1,    1,    2,   31,   30
   2,    2,    3,   32,   31
   3,    3,    4,   33,   32
   4,    4,    5,   34,   33
   5,    5,    6,   35,   34
   6,    6,    7,   36,   35
   7,    7,    8,   37,   36
   8,    8,    9,   38,   37
   9,    9,   10,   39,   38
  10,   10,   11,   40,   39
  11,   11,   12,   41,   40
  12,   12,   13,   42,   41
  13,   13,   14,   43,   42
  14,   14,   15,   44,   43
  15,   15,   16,   45,   44
  16,   16,   17,   46,   45
  17,   17,   18,   47,   46
  18,   18,   19,   48,   47
  19,   19,   20,   49,   48
  20,   20,   21,   50,   49
** ... 1380 like lines cut
*Nset, nset=_PickedSet2, internal, generate
    1,  1479,     1
*Elset, elset=_PickedSet2, internal, generate
    1,  1400,     1
** Section: Section-tablet
*Solid Section, elset=_PickedSet2, material=Material-powder
,
*End Part
**  
**
** ASSEMBLY
**
*Assembly, name=Assembly
**  
*Instance, name=Part-die-1, part=Part-die
        5.64,        15.12,           0.
*End Instance
**  
*Instance, name=Part-punch-low-1, part=Part-punch-low
          0.,        15.12,           0.
*End Instance
**  
*Instance, name=Part-punch-upp-1, part=Part-punch-upp
          0.,        25.62,           0.
*End Instance
**  
*Instance, name=Part-tablet-1, part=Part-tablet
          0.,        15.62,           0.
*End Instance
**  
*Nset, nset=Set-die-ref, instance=Part-die-1
 117,
*Nset, nset=Set-low-ref, instance=Part-punch-low-1
 61,
*Nset, nset=Set-upp-ref, instance=Part-punch-upp-1
 61,
*Nset, nset=_PickedSet19, internal, instance=Part-punch-low-1
 61,
*Nset, nset=_PickedSet20, internal, instance=Part-die-1
 117,
*Nset, nset=_PickedSet21, internal, instance=Part-punch-upp-1
 61,
*Nset, nset=_PickedSet22, internal, instance=Part-tablet-1, generate
    1,  1451,    29
*Elset, elset=_PickedSet22, internal, instance=Part-tablet-1, generate
    1,  1373,    28
*Elset, elset=__PickedSurf10_SPOS, internal, instance=Part-die-1, generate
  62,  116,    1
*Surface, type=ELEMENT, name=_PickedSurf10, internal
__PickedSurf10_SPOS, SPOS
*Elset, elset=__PickedSurf11_S2, internal, instance=Part-tablet-1, generate
   28,  1400,    28
*Surface, type=ELEMENT, name=_PickedSurf11, internal
__PickedSurf11_S2, S2
*Elset, elset=__PickedSurf12_SNEG, internal, instance=Part-punch-upp-1, generate
  1,  28,   1
*Surface, type=ELEMENT, name=_PickedSurf12, internal
__PickedSurf12_SNEG, SNEG
*Elset, elset=__PickedSurf13_S3, internal, instance=Part-tablet-1, generate
 1373,  1400,     1
*Surface, type=ELEMENT, name=_PickedSurf13, internal
__PickedSurf13_S3, S3
*Elset, elset=__PickedSurf14_SNEG, internal, instance=Part-punch-low-1, generate
 32,  59,   1
*Surface, type=ELEMENT, name=_PickedSurf14, internal
__PickedSurf14_SNEG, SNEG
*Elset, elset=__PickedSurf15_S1, internal, instance=Part-tablet-1, generate
  1,  28,   1
*Surface, type=ELEMENT, name=_PickedSurf15, internal
__PickedSurf15_S1, S1
*Rigid Body, ref node=Part-die-1.Part-die-RefPt_, elset=Part-die-1.Part-die
*Rigid Body, ref node=Part-punch-low-1.Part-punch-low-RefPt_, elset=Part-punch-low-1.Part-punch-low
*Rigid Body, ref node=Part-punch-upp-1.Part-punch-upp-RefPt_, elset=Part-punch-upp-1.Part-punch-upp
*End Assembly
** 
** MATERIALS
** 
*Material, name=Material-powder
*Cap Plasticity, dependencies=1
 0.026759, 54.3546,   0.271,      0.,      0.,      1., ,     0.3
   0.7225, 68.7764,   0.312,      0.,      0.,      1., ,     0.4
    1.156, 68.3426,   0.586,      0.,      0.,      1., ,     0.5
  3.12432, 68.0337,    0.64,      0.,      0.,      1., ,     0.6
  5.84879, 68.0709,    0.69,      0.,      0.,      1., ,     0.7
  10.5116, 67.4225,   0.789,      0.,      0.,      1., ,     0.8
   18.645, 66.5088,   0.907,      0.,      0.,      1., ,     0.9
   29.979,  66.324,    1.02,      0.,      0.,      1., ,    0.93
    34.08, 65.6889,     1.3,      0.,      0.,      1., ,    0.96
   56.863,  63.395,   1.608,      0.,      0.,      1., ,    0.99
   70.397,  62.097,     3.8,      0.,      0.,      1., ,   0.999
   75.555,  61.821,     6.2,      0.,      0.,      1., ,  0.9999
   75.556,  61.821,     48.,      0.,      0.,      1., , 0.99999
*Cap Hardening
 0.609,       0.
  4.03, 0.287682
  10.7, 0.510826
  20.5, 0.693147
 35.78, 0.847298
  64.7, 0.980829
 127.9,  1.09861
  170.,   1.1314
  257.,     1.16
  368.,  1.19392
  823.,  1.20297
 1300.,  1.20387
13000.,  1.20396
*Depvar
      1,
*Elastic, dependencies=1
     45.,    0.016, , 0.300311
     94.,    0.025, , 0.350363
    177.,    0.035, , 0.400355
    302.,    0.047, , 0.450762
    482.,    0.061, , 0.500868
    732.,    0.077, , 0.551403
   1053.,    0.094, , 0.600061
   1491.,    0.114, , 0.650583
 2057.49,    0.136, , 0.700593
 2785.29, 0.160563, , 0.751596
 3714.61, 0.187767, ,  0.80269
 4850.44, 0.217073, , 0.852745
 6323.52, 0.250736, , 0.904112
 8026.23, 0.285436, , 0.950939
  9305.8, 0.309386, ,     0.98
 9739.14, 0.317136, ,     0.99
 10142.4, 0.324209, ,    0.999
 10183.4,     0.32, ,   0.9999
*User Defined Field
** 
** INTERACTION PROPERTIES
** 
*Surface Interaction, name=IntProp-powder-wall
1.,
*Friction, slip tolerance=0.005, dependencies=1
 0.917981, , , ,  0.3
 0.800948, , , , 0.31
 0.702013, , , , 0.32
 0.618379, , , , 0.33
 0.547678, , , , 0.34
  0.48791, , , , 0.35
 0.437386, , , , 0.36
 0.394675, , , , 0.37
 0.358569, , , , 0.38
 0.328046, , , , 0.39
 0.302244, , , ,  0.4
 0.280432, , , , 0.41
 0.261994, , , , 0.42
 0.246406, , , , 0.43
 0.233229, , , , 0.44
  0.22209, , , , 0.45
 0.212674, , , , 0.46
 0.204714, , , , 0.47
 0.197984, , , , 0.48
 0.192296, , , , 0.49
** ... 51 like lines cut
*Surface Behavior, pressure-overclosure=HARD
** 
** INTERACTIONS
** 
** Interaction: Int-powder-die
*Contact Pair, interaction=IntProp-powder-wall, small sliding
_PickedSurf11, _PickedSurf10
** Interaction: Int-powder-punch-low
*Contact Pair, interaction=IntProp-powder-wall, small sliding
_PickedSurf15, _PickedSurf14
** Interaction: Int-powder-punch-upp
*Contact Pair, interaction=IntProp-powder-wall, small sliding
_PickedSurf13, _PickedSurf12
** ----------------------------------------------------------------
** 
** STEP: Step-load
** 
*Step, name=Step-load, nlgeom=YES, inc=1000
*Static
0.01, 1., 1e-10, 0.1
** 
** BOUNDARY CONDITIONS
** 
** Name: BC-axisymmetry Type: Displacement/Rotation
*Boundary
_PickedSet22, 1, 1
** Name: BC-fixed Type: Symmetry/Antisymmetry/Encastre
*Boundary
_PickedSet19, ENCASTRE
** Name: BC-fixed-die Type: Symmetry/Antisymmetry/Encastre
*Boundary
_PickedSet20, ENCASTRE
** Name: BC-punch-upp Type: Displacement/Rotation
*Boundary
_PickedSet21, 1, 1
_PickedSet21, 2, 2, -5.5
_PickedSet21, 6, 6
** 
** OUTPUT REQUESTS
** 
*Restart, write, frequency=0
** 
** FIELD OUTPUT: F-Output-1
** 
*Output, field
*Node Output
CF, RF, U
*Element Output, directions=YES
LE, PE, PEEQ, PEMAG, S, SDV
*Contact Output
CDISP, CSTRESS
** 
** HISTORY OUTPUT: H-Output-3
** 
*Output, history
*Node Output, nset=Set-die-ref
RF1, 
** 
** HISTORY OUTPUT: H-Output-2
** 
*Node Output, nset=Set-low-ref
RF2, U2
** 
** HISTORY OUTPUT: H-Output-1
** 
*Node Output, nset=Set-upp-ref
RF2, U2
*End Step
